extensions/entsoe/resources/xnode.xml
<?xml version="1.0" encoding="UTF-8"?>
<iidm:network xmlns:iidm="http://www.powsybl.org/schema/iidm/1_10" xmlns:xn="http://www.itesla_project.eu/schema/iidm/ext/xnode/1_0" id="test" caseDate="2016-06-27T12:27:58.535000+02:00" forecastDistance="0" sourceFormat="test" minimumValidationLevel="STEADY_STATE_HYPOTHESIS">
    <iidm:substation id="S" country="FR">
        <iidm:voltageLevel id="VL" nominalV="400" topologyKind="BUS_BREAKER">
            <iidm:busBreakerTopology>
                <iidm:bus id="B"/>
            </iidm:busBreakerTopology>
            <iidm:danglingLine id="DL" p0="0" q0="0" r="1" x="1" g="0" b="0" bus="B" connectableBus="B"/>
        </iidm:voltageLevel>
    </iidm:substation>
    <iidm:extension id="DL">
        <xn:xnode code="XXXXXX11"/>
    </iidm:extension>
</iidm:network>
